
This summary information was generated by ElastoDyn on 10-Aug-2023 at 09:40:22.


Turbine features:

            Upwind, 3-bladed rotor with rigid hub.
            The model has 10 of 24 DOFs active (enabled) at start-up.
 Enabled    Platform horizontal surge translation DOF 
 Enabled    Platform horizontal sway translation DOF 
 Enabled    Platform vertical heave translation DOF 
 Enabled    Platform roll tilt rotation DOF 
 Enabled    Platform pitch tilt rotation DOF 
 Enabled    Platform yaw rotation DOF 
 Enabled    1st tower fore-aft bending mode DOF 
 Enabled    1st tower side-to-side bending mode DOF 
 Enabled    2nd tower fore-aft bending mode DOF 
 Enabled    2nd tower side-to-side bending mode DOF 
 Disabled   Nacelle yaw DOF 
 Disabled   Rotor-furl DOF 
 Disabled   Variable speed generator DOF 
 Disabled   Drivetrain rotational-flexibility DOF 
 Disabled   Tail-furl DOF 
 Disabled   1st flapwise bending-mode DOF of blade 1 
 Disabled   1st edgewise bending-mode DOF of blade 1 
 Disabled   2nd flapwise bending-mode DOF of blade 1 
 Disabled   1st flapwise bending-mode DOF of blade 2 
 Disabled   1st edgewise bending-mode DOF of blade 2 
 Disabled   2nd flapwise bending-mode DOF of blade 2 
 Disabled   1st flapwise bending-mode DOF of blade 3 
 Disabled   1st edgewise bending-mode DOF of blade 3 
 Disabled   2nd flapwise bending-mode DOF of blade 3 


Time steps:

    Structural            (s)        0.01000000


Some calculated parameters:

    Hub-Height            (m)           141.890
    Flexible Tower Length (m)           123.550
    Flexible Blade Length (m)             0.010


Rotor mass properties:

    Rotor Mass            (kg)            0.000
    Rotor Inertia         (kg-m^2)        0.000
                                        Blade 1      Blade 2      Blade 3
                                        -------      -------      -------
    Mass                  (kg)            0.000        0.000        0.000
    Second Mass Moment    (kg-m^2)        0.000        0.000        0.000
    First Mass Moment     (kg-m)          0.000        0.000        0.000
    Center of Mass        (m)             0.005        0.005        0.005


Additional mass properties:

    Tower-top Mass        (kg)      1205000.000
    Tower Mass            (kg)       478864.938
    Platform Mass         (kg)     18430000.000
    Mass Incl. Platform   (kg)     20113864.000


Interpolated tower properties:

Node  TwFract   HNodes  DHNodes  TMassDen    FAStiff    SSStiff
 (-)      (-)      (m)      (m)    (kg/m)     (Nm^2)     (Nm^2)
   1    0.024    2.942    5.883  3875.879  2.500E+12  2.500E+12
   2    0.071    8.825    5.883  3875.879  2.500E+12  2.500E+12
   3    0.119   14.708    5.883  3875.879  2.500E+12  2.500E+12
   4    0.167   20.592    5.883  3875.879  2.500E+12  2.500E+12
   5    0.214   26.475    5.883  3875.879  2.500E+12  2.500E+12
   6    0.262   32.358    5.883  3875.879  2.500E+12  2.500E+12
   7    0.310   38.242    5.883  3875.879  2.500E+12  2.500E+12
   8    0.357   44.125    5.883  3875.879  2.500E+12  2.500E+12
   9    0.405   50.008    5.883  3875.879  2.500E+12  2.500E+12
  10    0.452   55.892    5.883  3875.879  2.500E+12  2.500E+12
  11    0.500   61.775    5.883  3875.879  2.500E+12  2.500E+12
  12    0.548   67.658    5.883  3875.879  2.500E+12  2.500E+12
  13    0.595   73.542    5.883  3875.879  2.500E+12  2.500E+12
  14    0.643   79.425    5.883  3875.879  2.500E+12  2.500E+12
  15    0.690   85.308    5.883  3875.879  2.500E+12  2.500E+12
  16    0.738   91.192    5.883  3875.879  2.500E+12  2.500E+12
  17    0.786   97.075    5.883  3875.879  2.500E+12  2.500E+12
  18    0.833  102.958    5.883  3875.879  2.500E+12  2.500E+12
  19    0.881  108.842    5.883  3875.879  2.500E+12  2.500E+12
  20    0.929  114.725    5.883  3875.879  2.500E+12  2.500E+12
  21    0.976  120.608    5.883  3875.879  2.500E+12  2.500E+12


Interpolated blade 1 properties:

Node  BlFract   RNodes  DRNodes PitchAxis  StrcTwst  BMassDen    FlpStff    EdgStff
 (-)      (-)      (m)      (m)       (-)     (deg)    (kg/m)     (Nm^2)     (Nm^2)
   1    0.250    0.002    0.005     0.250     0.000     0.001  1.000E+12  1.000E+12
   2    0.750    0.007    0.005     0.250     0.000     0.001  1.000E+12  1.000E+12


Interpolated blade 2 properties:

Node  BlFract   RNodes  DRNodes PitchAxis  StrcTwst  BMassDen    FlpStff    EdgStff
 (-)      (-)      (m)      (m)       (-)     (deg)    (kg/m)     (Nm^2)     (Nm^2)
   1    0.250    0.002    0.005     0.250     0.000     0.001  1.000E+12  1.000E+12
   2    0.750    0.007    0.005     0.250     0.000     0.001  1.000E+12  1.000E+12


Interpolated blade 3 properties:

Node  BlFract   RNodes  DRNodes PitchAxis  StrcTwst  BMassDen    FlpStff    EdgStff
 (-)      (-)      (m)      (m)       (-)     (deg)    (kg/m)     (Nm^2)     (Nm^2)
   1    0.250    0.002    0.005     0.250     0.000     0.001  1.000E+12  1.000E+12
   2    0.750    0.007    0.005     0.250     0.000     0.001  1.000E+12  1.000E+12


Requested Outputs:


 Col   Parameter            Units               
 ---   ---------------      ---------------     
   0   Time                 (s)                 
   1   TTDspFA              (m)                 
   2   TTDspSS              (m)                 
   3   YawBrTAxp            (m/s^2)             
   4   YawBrTAyp            (m/s^2)             
   5   YawBrTAzp            (m/s^2)             
   6   TwrBsFxt             (kN)                
   7   TwrBsFyt             (kN)                
   8   TwrBsFzt             (kN)                
   9   TwrBsMxt             (kN-m)              
  10   TwrBsMyt             (kN-m)              
  11   TwrBsMzt             (kN-m)              
  12   PtfmSurge            (m)                 
  13   PtfmSway             (m)                 
  14   PtfmHeave            (m)                 
  15   PtfmRoll             (deg)               
  16   PtfmPitch            (deg)               
  17   PtfmYaw              (deg)               
  18   PtfmTAxi             (m/s^2)             
  19   PtfmTAyi             (m/s^2)             
  20   PtfmTAzi             (m/s^2)             
  21   PtfmRAxi             (deg/s^2)           
  22   PtfmRAyi             (deg/s^2)           
  23   PtfmRAzi             (deg/s^2)           


  Requested Output Channels at each blade station:
 Col   Parameter            Units               
 ---   ---------------      ---------------     
